L24/1726523/_ATERRAMENTO.dss
! Aterramento do neutro (no 4) dos secundarios de BT
! Reactor de 0.5 ohm entre o no 4 e a terra (no 0).
New Reactor.NEUTRO_node_1013960037 phases=1 bus1=node_1013960037.4 bus2=node_1013960037.0 R=0.5 X=0
New Reactor.NEUTRO_node_1046984709 phases=1 bus1=node_1046984709.4 bus2=node_1046984709.0 R=0.5 X=0
New Reactor.NEUTRO_node_1052533246 phases=1 bus1=node_1052533246.4 bus2=node_1052533246.0 R=0.5 X=0
New Reactor.NEUTRO_node_1096262523 phases=1 bus1=node_1096262523.4 bus2=node_1096262523.0 R=0.5 X=0
New Reactor.NEUTRO_node_1100011243 phases=1 bus1=node_1100011243.4 bus2=node_1100011243.0 R=0.5 X=0
New Reactor.NEUTRO_node_1100011469 phases=1 bus1=node_1100011469.4 bus2=node_1100011469.0 R=0.5 X=0
New Reactor.NEUTRO_node_1155542154 phases=1 bus1=node_1155542154.4 bus2=node_1155542154.0 R=0.5 X=0
New Reactor.NEUTRO_node_1175045060 phases=1 bus1=node_1175045060.4 bus2=node_1175045060.0 R=0.5 X=0
New Reactor.NEUTRO_node_1179544679 phases=1 bus1=node_1179544679.4 bus2=node_1179544679.0 R=0.5 X=0
New Reactor.NEUTRO_node_1179836827 phases=1 bus1=node_1179836827.4 bus2=node_1179836827.0 R=0.5 X=0
New Reactor.NEUTRO_node_1180231682 phases=1 bus1=node_1180231682.4 bus2=node_1180231682.0 R=0.5 X=0
New Reactor.NEUTRO_node_1189163191 phases=1 bus1=node_1189163191.4 bus2=node_1189163191.0 R=0.5 X=0
New Reactor.NEUTRO_node_1230538938 phases=1 bus1=node_1230538938.4 bus2=node_1230538938.0 R=0.5 X=0
New Reactor.NEUTRO_node_1231274788 phases=1 bus1=node_1231274788.4 bus2=node_1231274788.0 R=0.5 X=0
New Reactor.NEUTRO_node_1236371476 phases=1 bus1=node_1236371476.4 bus2=node_1236371476.0 R=0.5 X=0
New Reactor.NEUTRO_node_1241343905 phases=1 bus1=node_1241343905.4 bus2=node_1241343905.0 R=0.5 X=0
New Reactor.NEUTRO_node_1244783514 phases=1 bus1=node_1244783514.4 bus2=node_1244783514.0 R=0.5 X=0
New Reactor.NEUTRO_node_1248339092 phases=1 bus1=node_1248339092.4 bus2=node_1248339092.0 R=0.5 X=0
New Reactor.NEUTRO_node_1248339099 phases=1 bus1=node_1248339099.4 bus2=node_1248339099.0 R=0.5 X=0
New Reactor.NEUTRO_node_1263664363 phases=1 bus1=node_1263664363.4 bus2=node_1263664363.0 R=0.5 X=0
New Reactor.NEUTRO_node_1287079289 phases=1 bus1=node_1287079289.4 bus2=node_1287079289.0 R=0.5 X=0
New Reactor.NEUTRO_node_1336224304 phases=1 bus1=node_1336224304.4 bus2=node_1336224304.0 R=0.5 X=0
New Reactor.NEUTRO_node_1372139170 phases=1 bus1=node_1372139170.4 bus2=node_1372139170.0 R=0.5 X=0
New Reactor.NEUTRO_node_1392596557 phases=1 bus1=node_1392596557.4 bus2=node_1392596557.0 R=0.5 X=0
New Reactor.NEUTRO_node_1448362170 phases=1 bus1=node_1448362170.4 bus2=node_1448362170.0 R=0.5 X=0
New Reactor.NEUTRO_node_1525933222 phases=1 bus1=node_1525933222.4 bus2=node_1525933222.0 R=0.5 X=0
New Reactor.NEUTRO_node_1552362613 phases=1 bus1=node_1552362613.4 bus2=node_1552362613.0 R=0.5 X=0
New Reactor.NEUTRO_node_1563054742 phases=1 bus1=node_1563054742.4 bus2=node_1563054742.0 R=0.5 X=0
New Reactor.NEUTRO_node_1563054932 phases=1 bus1=node_1563054932.4 bus2=node_1563054932.0 R=0.5 X=0
New Reactor.NEUTRO_node_1587642371 phases=1 bus1=node_1587642371.4 bus2=node_1587642371.0 R=0.5 X=0
New Reactor.NEUTRO_node_1593271626 phases=1 bus1=node_1593271626.4 bus2=node_1593271626.0 R=0.5 X=0
New Reactor.NEUTRO_node_1593271724 phases=1 bus1=node_1593271724.4 bus2=node_1593271724.0 R=0.5 X=0
New Reactor.NEUTRO_node_1595942459 phases=1 bus1=node_1595942459.4 bus2=node_1595942459.0 R=0.5 X=0
New Reactor.NEUTRO_node_1600807591 phases=1 bus1=node_1600807591.4 bus2=node_1600807591.0 R=0.5 X=0
New Reactor.NEUTRO_node_1603577277 phases=1 bus1=node_1603577277.4 bus2=node_1603577277.0 R=0.5 X=0
New Reactor.NEUTRO_node_1643524460 phases=1 bus1=node_1643524460.4 bus2=node_1643524460.0 R=0.5 X=0
New Reactor.NEUTRO_node_1648758758 phases=1 bus1=node_1648758758.4 bus2=node_1648758758.0 R=0.5 X=0
New Reactor.NEUTRO_node_1648758800 phases=1 bus1=node_1648758800.4 bus2=node_1648758800.0 R=0.5 X=0
New Reactor.NEUTRO_node_1675021409 phases=1 bus1=node_1675021409.4 bus2=node_1675021409.0 R=0.5 X=0
New Reactor.NEUTRO_node_1686391294 phases=1 bus1=node_1686391294.4 bus2=node_1686391294.0 R=0.5 X=0
New Reactor.NEUTRO_node_1686492191 phases=1 bus1=node_1686492191.4 bus2=node_1686492191.0 R=0.5 X=0
New Reactor.NEUTRO_node_1712271616 phases=1 bus1=node_1712271616.4 bus2=node_1712271616.0 R=0.5 X=0
New Reactor.NEUTRO_node_1712292631 phases=1 bus1=node_1712292631.4 bus2=node_1712292631.0 R=0.5 X=0
New Reactor.NEUTRO_node_1712292982 phases=1 bus1=node_1712292982.4 bus2=node_1712292982.0 R=0.5 X=0
New Reactor.NEUTRO_node_1716900096 phases=1 bus1=node_1716900096.4 bus2=node_1716900096.0 R=0.5 X=0
New Reactor.NEUTRO_node_1719953597 phases=1 bus1=node_1719953597.4 bus2=node_1719953597.0 R=0.5 X=0
New Reactor.NEUTRO_node_1726183761 phases=1 bus1=node_1726183761.4 bus2=node_1726183761.0 R=0.5 X=0
New Reactor.NEUTRO_node_1728742986 phases=1 bus1=node_1728742986.4 bus2=node_1728742986.0 R=0.5 X=0
New Reactor.NEUTRO_node_1737322697 phases=1 bus1=node_1737322697.4 bus2=node_1737322697.0 R=0.5 X=0
New Reactor.NEUTRO_node_1743819252 phases=1 bus1=node_1743819252.4 bus2=node_1743819252.0 R=0.5 X=0
New Reactor.NEUTRO_node_1745606826 phases=1 bus1=node_1745606826.4 bus2=node_1745606826.0 R=0.5 X=0
New Reactor.NEUTRO_node_1748512856 phases=1 bus1=node_1748512856.4 bus2=node_1748512856.0 R=0.5 X=0
New Reactor.NEUTRO_node_1748513188 phases=1 bus1=node_1748513188.4 bus2=node_1748513188.0 R=0.5 X=0
New Reactor.NEUTRO_node_1751317168 phases=1 bus1=node_1751317168.4 bus2=node_1751317168.0 R=0.5 X=0
New Reactor.NEUTRO_node_1754322328 phases=1 bus1=node_1754322328.4 bus2=node_1754322328.0 R=0.5 X=0
New Reactor.NEUTRO_node_1756436268 phases=1 bus1=node_1756436268.4 bus2=node_1756436268.0 R=0.5 X=0
New Reactor.NEUTRO_node_1757281184 phases=1 bus1=node_1757281184.4 bus2=node_1757281184.0 R=0.5 X=0
New Reactor.NEUTRO_node_1762047602 phases=1 bus1=node_1762047602.4 bus2=node_1762047602.0 R=0.5 X=0
New Reactor.NEUTRO_node_1780863761 phases=1 bus1=node_1780863761.4 bus2=node_1780863761.0 R=0.5 X=0
New Reactor.NEUTRO_node_1790263126 phases=1 bus1=node_1790263126.4 bus2=node_1790263126.0 R=0.5 X=0
New Reactor.NEUTRO_node_1797923900 phases=1 bus1=node_1797923900.4 bus2=node_1797923900.0 R=0.5 X=0
New Reactor.NEUTRO_node_1870926130 phases=1 bus1=node_1870926130.4 bus2=node_1870926130.0 R=0.5 X=0
New Reactor.NEUTRO_node_1871454350 phases=1 bus1=node_1871454350.4 bus2=node_1871454350.0 R=0.5 X=0
New Reactor.NEUTRO_node_1891309519 phases=1 bus1=node_1891309519.4 bus2=node_1891309519.0 R=0.5 X=0
New Reactor.NEUTRO_node_1897170797 phases=1 bus1=node_1897170797.4 bus2=node_1897170797.0 R=0.5 X=0
New Reactor.NEUTRO_node_1905789531 phases=1 bus1=node_1905789531.4 bus2=node_1905789531.0 R=0.5 X=0
New Reactor.NEUTRO_node_1909474174 phases=1 bus1=node_1909474174.4 bus2=node_1909474174.0 R=0.5 X=0
New Reactor.NEUTRO_node_1916901861 phases=1 bus1=node_1916901861.4 bus2=node_1916901861.0 R=0.5 X=0
New Reactor.NEUTRO_node_1923342728 phases=1 bus1=node_1923342728.4 bus2=node_1923342728.0 R=0.5 X=0
New Reactor.NEUTRO_node_1939725047 phases=1 bus1=node_1939725047.4 bus2=node_1939725047.0 R=0.5 X=0
New Reactor.NEUTRO_node_1943838320 phases=1 bus1=node_1943838320.4 bus2=node_1943838320.0 R=0.5 X=0
New Reactor.NEUTRO_node_1949974287 phases=1 bus1=node_1949974287.4 bus2=node_1949974287.0 R=0.5 X=0
New Reactor.NEUTRO_node_1960756357 phases=1 bus1=node_1960756357.4 bus2=node_1960756357.0 R=0.5 X=0
New Reactor.NEUTRO_node_1967820110 phases=1 bus1=node_1967820110.4 bus2=node_1967820110.0 R=0.5 X=0
New Reactor.NEUTRO_node_1970319101 phases=1 bus1=node_1970319101.4 bus2=node_1970319101.0 R=0.5 X=0
New Reactor.NEUTRO_node_1982672948 phases=1 bus1=node_1982672948.4 bus2=node_1982672948.0 R=0.5 X=0
New Reactor.NEUTRO_node_1999406717 phases=1 bus1=node_1999406717.4 bus2=node_1999406717.0 R=0.5 X=0
New Reactor.NEUTRO_node_2000209735 phases=1 bus1=node_2000209735.4 bus2=node_2000209735.0 R=0.5 X=0
New Reactor.NEUTRO_node_2013203633 phases=1 bus1=node_2013203633.4 bus2=node_2013203633.0 R=0.5 X=0
New Reactor.NEUTRO_node_2014659372 phases=1 bus1=node_2014659372.4 bus2=node_2014659372.0 R=0.5 X=0
New Reactor.NEUTRO_node_2028079074 phases=1 bus1=node_2028079074.4 bus2=node_2028079074.0 R=0.5 X=0
New Reactor.NEUTRO_node_2037541675 phases=1 bus1=node_2037541675.4 bus2=node_2037541675.0 R=0.5 X=0
New Reactor.NEUTRO_node_2043712222 phases=1 bus1=node_2043712222.4 bus2=node_2043712222.0 R=0.5 X=0
New Reactor.NEUTRO_node_2044648311 phases=1 bus1=node_2044648311.4 bus2=node_2044648311.0 R=0.5 X=0
New Reactor.NEUTRO_node_2044648435 phases=1 bus1=node_2044648435.4 bus2=node_2044648435.0 R=0.5 X=0
New Reactor.NEUTRO_node_2064933467 phases=1 bus1=node_2064933467.4 bus2=node_2064933467.0 R=0.5 X=0
New Reactor.NEUTRO_node_2078467810 phases=1 bus1=node_2078467810.4 bus2=node_2078467810.0 R=0.5 X=0
New Reactor.NEUTRO_node_2080078103 phases=1 bus1=node_2080078103.4 bus2=node_2080078103.0 R=0.5 X=0
New Reactor.NEUTRO_node_2080078240 phases=1 bus1=node_2080078240.4 bus2=node_2080078240.0 R=0.5 X=0
New Reactor.NEUTRO_node_2084977495 phases=1 bus1=node_2084977495.4 bus2=node_2084977495.0 R=0.5 X=0
New Reactor.NEUTRO_node_2104768543 phases=1 bus1=node_2104768543.4 bus2=node_2104768543.0 R=0.5 X=0
New Reactor.NEUTRO_node_2108787811 phases=1 bus1=node_2108787811.4 bus2=node_2108787811.0 R=0.5 X=0
New Reactor.NEUTRO_node_2112334823 phases=1 bus1=node_2112334823.4 bus2=node_2112334823.0 R=0.5 X=0
New Reactor.NEUTRO_node_2124649785 phases=1 bus1=node_2124649785.4 bus2=node_2124649785.0 R=0.5 X=0
New Reactor.NEUTRO_node_2128364150 phases=1 bus1=node_2128364150.4 bus2=node_2128364150.0 R=0.5 X=0
New Reactor.NEUTRO_node_2133959748 phases=1 bus1=node_2133959748.4 bus2=node_2133959748.0 R=0.5 X=0
New Reactor.NEUTRO_node_2153901246 phases=1 bus1=node_2153901246.4 bus2=node_2153901246.0 R=0.5 X=0
New Reactor.NEUTRO_node_2157297710 phases=1 bus1=node_2157297710.4 bus2=node_2157297710.0 R=0.5 X=0
New Reactor.NEUTRO_node_2161028769 phases=1 bus1=node_2161028769.4 bus2=node_2161028769.0 R=0.5 X=0
New Reactor.NEUTRO_node_2188871130 phases=1 bus1=node_2188871130.4 bus2=node_2188871130.0 R=0.5 X=0
New Reactor.NEUTRO_node_2216486010 phases=1 bus1=node_2216486010.4 bus2=node_2216486010.0 R=0.5 X=0
New Reactor.NEUTRO_node_2222419871 phases=1 bus1=node_2222419871.4 bus2=node_2222419871.0 R=0.5 X=0
New Reactor.NEUTRO_node_2229702593 phases=1 bus1=node_2229702593.4 bus2=node_2229702593.0 R=0.5 X=0
New Reactor.NEUTRO_node_2248235478 phases=1 bus1=node_2248235478.4 bus2=node_2248235478.0 R=0.5 X=0
New Reactor.NEUTRO_node_2253521359 phases=1 bus1=node_2253521359.4 bus2=node_2253521359.0 R=0.5 X=0
New Reactor.NEUTRO_node_2257201272 phases=1 bus1=node_2257201272.4 bus2=node_2257201272.0 R=0.5 X=0
New Reactor.NEUTRO_node_2257385880 phases=1 bus1=node_2257385880.4 bus2=node_2257385880.0 R=0.5 X=0
New Reactor.NEUTRO_node_2259580326 phases=1 bus1=node_2259580326.4 bus2=node_2259580326.0 R=0.5 X=0
New Reactor.NEUTRO_node_2261065861 phases=1 bus1=node_2261065861.4 bus2=node_2261065861.0 R=0.5 X=0
New Reactor.NEUTRO_node_2266897095 phases=1 bus1=node_2266897095.4 bus2=node_2266897095.0 R=0.5 X=0
New Reactor.NEUTRO_node_2270547074 phases=1 bus1=node_2270547074.4 bus2=node_2270547074.0 R=0.5 X=0
New Reactor.NEUTRO_node_2271358816 phases=1 bus1=node_2271358816.4 bus2=node_2271358816.0 R=0.5 X=0
New Reactor.NEUTRO_node_2274978510 phases=1 bus1=node_2274978510.4 bus2=node_2274978510.0 R=0.5 X=0
New Reactor.NEUTRO_node_2275253247 phases=1 bus1=node_2275253247.4 bus2=node_2275253247.0 R=0.5 X=0
New Reactor.NEUTRO_node_2286125728 phases=1 bus1=node_2286125728.4 bus2=node_2286125728.0 R=0.5 X=0
New Reactor.NEUTRO_node_2287027342 phases=1 bus1=node_2287027342.4 bus2=node_2287027342.0 R=0.5 X=0
New Reactor.NEUTRO_node_2291433162 phases=1 bus1=node_2291433162.4 bus2=node_2291433162.0 R=0.5 X=0
New Reactor.NEUTRO_node_2301614150 phases=1 bus1=node_2301614150.4 bus2=node_2301614150.0 R=0.5 X=0
New Reactor.NEUTRO_node_2325274007 phases=1 bus1=node_2325274007.4 bus2=node_2325274007.0 R=0.5 X=0
New Reactor.NEUTRO_node_2331757990 phases=1 bus1=node_2331757990.4 bus2=node_2331757990.0 R=0.5 X=0
New Reactor.NEUTRO_node_2336975176 phases=1 bus1=node_2336975176.4 bus2=node_2336975176.0 R=0.5 X=0
New Reactor.NEUTRO_node_2347229322 phases=1 bus1=node_2347229322.4 bus2=node_2347229322.0 R=0.5 X=0
New Reactor.NEUTRO_node_2362292815 phases=1 bus1=node_2362292815.4 bus2=node_2362292815.0 R=0.5 X=0
New Reactor.NEUTRO_node_2364589891 phases=1 bus1=node_2364589891.4 bus2=node_2364589891.0 R=0.5 X=0
New Reactor.NEUTRO_node_2370803333 phases=1 bus1=node_2370803333.4 bus2=node_2370803333.0 R=0.5 X=0
New Reactor.NEUTRO_node_2373993766 phases=1 bus1=node_2373993766.4 bus2=node_2373993766.0 R=0.5 X=0
New Reactor.NEUTRO_node_2378262037 phases=1 bus1=node_2378262037.4 bus2=node_2378262037.0 R=0.5 X=0
New Reactor.NEUTRO_node_2394995745 phases=1 bus1=node_2394995745.4 bus2=node_2394995745.0 R=0.5 X=0
New Reactor.NEUTRO_node_2415636984 phases=1 bus1=node_2415636984.4 bus2=node_2415636984.0 R=0.5 X=0
New Reactor.NEUTRO_node_2416925135 phases=1 bus1=node_2416925135.4 bus2=node_2416925135.0 R=0.5 X=0
New Reactor.NEUTRO_node_2431249933 phases=1 bus1=node_2431249933.4 bus2=node_2431249933.0 R=0.5 X=0
New Reactor.NEUTRO_node_2451144022 phases=1 bus1=node_2451144022.4 bus2=node_2451144022.0 R=0.5 X=0
New Reactor.NEUTRO_node_2474319423 phases=1 bus1=node_2474319423.4 bus2=node_2474319423.0 R=0.5 X=0
New Reactor.NEUTRO_node_2478147071 phases=1 bus1=node_2478147071.4 bus2=node_2478147071.0 R=0.5 X=0
New Reactor.NEUTRO_node_2489167437 phases=1 bus1=node_2489167437.4 bus2=node_2489167437.0 R=0.5 X=0
New Reactor.NEUTRO_node_2489167509 phases=1 bus1=node_2489167509.4 bus2=node_2489167509.0 R=0.5 X=0
New Reactor.NEUTRO_node_2490375119 phases=1 bus1=node_2490375119.4 bus2=node_2490375119.0 R=0.5 X=0
New Reactor.NEUTRO_node_2494092640 phases=1 bus1=node_2494092640.4 bus2=node_2494092640.0 R=0.5 X=0
New Reactor.NEUTRO_node_2496095550 phases=1 bus1=node_2496095550.4 bus2=node_2496095550.0 R=0.5 X=0
New Reactor.NEUTRO_node_2509956372 phases=1 bus1=node_2509956372.4 bus2=node_2509956372.0 R=0.5 X=0
New Reactor.NEUTRO_node_2534301696 phases=1 bus1=node_2534301696.4 bus2=node_2534301696.0 R=0.5 X=0
New Reactor.NEUTRO_node_2542670823 phases=1 bus1=node_2542670823.4 bus2=node_2542670823.0 R=0.5 X=0
New Reactor.NEUTRO_node_2550331142 phases=1 bus1=node_2550331142.4 bus2=node_2550331142.0 R=0.5 X=0
New Reactor.NEUTRO_node_2552486756 phases=1 bus1=node_2552486756.4 bus2=node_2552486756.0 R=0.5 X=0
New Reactor.NEUTRO_node_2558146308 phases=1 bus1=node_2558146308.4 bus2=node_2558146308.0 R=0.5 X=0
New Reactor.NEUTRO_node_2561126298 phases=1 bus1=node_2561126298.4 bus2=node_2561126298.0 R=0.5 X=0
New Reactor.NEUTRO_node_2571281656 phases=1 bus1=node_2571281656.4 bus2=node_2571281656.0 R=0.5 X=0
New Reactor.NEUTRO_node_2571281864 phases=1 bus1=node_2571281864.4 bus2=node_2571281864.0 R=0.5 X=0
New Reactor.NEUTRO_node_2577242209 phases=1 bus1=node_2577242209.4 bus2=node_2577242209.0 R=0.5 X=0
New Reactor.NEUTRO_node_2583699850 phases=1 bus1=node_2583699850.4 bus2=node_2583699850.0 R=0.5 X=0
New Reactor.NEUTRO_node_2586113355 phases=1 bus1=node_2586113355.4 bus2=node_2586113355.0 R=0.5 X=0
New Reactor.NEUTRO_node_2649484129 phases=1 bus1=node_2649484129.4 bus2=node_2649484129.0 R=0.5 X=0
New Reactor.NEUTRO_node_2649484265 phases=1 bus1=node_2649484265.4 bus2=node_2649484265.0 R=0.5 X=0
New Reactor.NEUTRO_node_2650514775 phases=1 bus1=node_2650514775.4 bus2=node_2650514775.0 R=0.5 X=0
New Reactor.NEUTRO_node_2650514907 phases=1 bus1=node_2650514907.4 bus2=node_2650514907.0 R=0.5 X=0
New Reactor.NEUTRO_node_2656268869 phases=1 bus1=node_2656268869.4 bus2=node_2656268869.0 R=0.5 X=0
New Reactor.NEUTRO_node_2656268939 phases=1 bus1=node_2656268939.4 bus2=node_2656268939.0 R=0.5 X=0
New Reactor.NEUTRO_node_2677158782 phases=1 bus1=node_2677158782.4 bus2=node_2677158782.0 R=0.5 X=0
New Reactor.NEUTRO_node_2682170040 phases=1 bus1=node_2682170040.4 bus2=node_2682170040.0 R=0.5 X=0
New Reactor.NEUTRO_node_2717421468 phases=1 bus1=node_2717421468.4 bus2=node_2717421468.0 R=0.5 X=0
New Reactor.NEUTRO_node_2725307701 phases=1 bus1=node_2725307701.4 bus2=node_2725307701.0 R=0.5 X=0
New Reactor.NEUTRO_node_2728288058 phases=1 bus1=node_2728288058.4 bus2=node_2728288058.0 R=0.5 X=0
New Reactor.NEUTRO_node_2735910103 phases=1 bus1=node_2735910103.4 bus2=node_2735910103.0 R=0.5 X=0
New Reactor.NEUTRO_node_2740877467 phases=1 bus1=node_2740877467.4 bus2=node_2740877467.0 R=0.5 X=0
New Reactor.NEUTRO_node_2742305143 phases=1 bus1=node_2742305143.4 bus2=node_2742305143.0 R=0.5 X=0
New Reactor.NEUTRO_node_2757530969 phases=1 bus1=node_2757530969.4 bus2=node_2757530969.0 R=0.5 X=0
New Reactor.NEUTRO_node_2758593280 phases=1 bus1=node_2758593280.4 bus2=node_2758593280.0 R=0.5 X=0
New Reactor.NEUTRO_node_2758593303 phases=1 bus1=node_2758593303.4 bus2=node_2758593303.0 R=0.5 X=0
New Reactor.NEUTRO_node_2758593323 phases=1 bus1=node_2758593323.4 bus2=node_2758593323.0 R=0.5 X=0
New Reactor.NEUTRO_node_2773955450 phases=1 bus1=node_2773955450.4 bus2=node_2773955450.0 R=0.5 X=0
New Reactor.NEUTRO_node_2783675688 phases=1 bus1=node_2783675688.4 bus2=node_2783675688.0 R=0.5 X=0
New Reactor.NEUTRO_node_2785088539 phases=1 bus1=node_2785088539.4 bus2=node_2785088539.0 R=0.5 X=0
New Reactor.NEUTRO_node_2793635036 phases=1 bus1=node_2793635036.4 bus2=node_2793635036.0 R=0.5 X=0
New Reactor.NEUTRO_node_2799585408 phases=1 bus1=node_2799585408.4 bus2=node_2799585408.0 R=0.5 X=0
New Reactor.NEUTRO_node_2805210195 phases=1 bus1=node_2805210195.4 bus2=node_2805210195.0 R=0.5 X=0
New Reactor.NEUTRO_node_2805210439 phases=1 bus1=node_2805210439.4 bus2=node_2805210439.0 R=0.5 X=0
New Reactor.NEUTRO_node_2805310002 phases=1 bus1=node_2805310002.4 bus2=node_2805310002.0 R=0.5 X=0
New Reactor.NEUTRO_node_2813506507 phases=1 bus1=node_2813506507.4 bus2=node_2813506507.0 R=0.5 X=0
New Reactor.NEUTRO_node_2818800647 phases=1 bus1=node_2818800647.4 bus2=node_2818800647.0 R=0.5 X=0
New Reactor.NEUTRO_node_2820312641 phases=1 bus1=node_2820312641.4 bus2=node_2820312641.0 R=0.5 X=0
New Reactor.NEUTRO_node_2829823860 phases=1 bus1=node_2829823860.4 bus2=node_2829823860.0 R=0.5 X=0
New Reactor.NEUTRO_node_2841627593 phases=1 bus1=node_2841627593.4 bus2=node_2841627593.0 R=0.5 X=0
New Reactor.NEUTRO_node_2845892117 phases=1 bus1=node_2845892117.4 bus2=node_2845892117.0 R=0.5 X=0
New Reactor.NEUTRO_node_2864361143 phases=1 bus1=node_2864361143.4 bus2=node_2864361143.0 R=0.5 X=0
New Reactor.NEUTRO_node_2871225353 phases=1 bus1=node_2871225353.4 bus2=node_2871225353.0 R=0.5 X=0
New Reactor.NEUTRO_node_2873733676 phases=1 bus1=node_2873733676.4 bus2=node_2873733676.0 R=0.5 X=0
New Reactor.NEUTRO_node_2886169754 phases=1 bus1=node_2886169754.4 bus2=node_2886169754.0 R=0.5 X=0
New Reactor.NEUTRO_node_2888068163 phases=1 bus1=node_2888068163.4 bus2=node_2888068163.0 R=0.5 X=0
New Reactor.NEUTRO_node_2904961035 phases=1 bus1=node_2904961035.4 bus2=node_2904961035.0 R=0.5 X=0
New Reactor.NEUTRO_node_409225603 phases=1 bus1=node_409225603.4 bus2=node_409225603.0 R=0.5 X=0
New Reactor.NEUTRO_node_409226290 phases=1 bus1=node_409226290.4 bus2=node_409226290.0 R=0.5 X=0
New Reactor.NEUTRO_node_409289400 phases=1 bus1=node_409289400.4 bus2=node_409289400.0 R=0.5 X=0
New Reactor.NEUTRO_node_409289988 phases=1 bus1=node_409289988.4 bus2=node_409289988.0 R=0.5 X=0
New Reactor.NEUTRO_node_412398488 phases=1 bus1=node_412398488.4 bus2=node_412398488.0 R=0.5 X=0
New Reactor.NEUTRO_node_415878217 phases=1 bus1=node_415878217.4 bus2=node_415878217.0 R=0.5 X=0
New Reactor.NEUTRO_node_416056588 phases=1 bus1=node_416056588.4 bus2=node_416056588.0 R=0.5 X=0
New Reactor.NEUTRO_node_416056591 phases=1 bus1=node_416056591.4 bus2=node_416056591.0 R=0.5 X=0
New Reactor.NEUTRO_node_416056864 phases=1 bus1=node_416056864.4 bus2=node_416056864.0 R=0.5 X=0
New Reactor.NEUTRO_node_416056867 phases=1 bus1=node_416056867.4 bus2=node_416056867.0 R=0.5 X=0
New Reactor.NEUTRO_node_416056873 phases=1 bus1=node_416056873.4 bus2=node_416056873.0 R=0.5 X=0
...
